LAMMPS (2 Aug 2023 - Update 3)
units lj

atom_style atomic
pair_style mie/cut 2.5

variable wallRat equal 1/v_wallSize
variable sigMix equal v_wallSize/2
variable cutoffB equal 1.0204*v_wallSize
variable cutoffM equal 1.0204*v_sigMix

pair_modify shift yes

read_data hard-sphere-conf-melted-X0.5.dat.out
Reading data file ...
  orthogonal box = (0 0 -57.146438) to (19.048813 19.048813 57.146438)
  reading atoms ...
  15264 atoms
  reading velocities ...
  15264 velocities

pair_coeff 1 1 1.0 1.0 50.0 49.0 1.0204
pair_coeff 1 2 1.0 0.25 50.0 49.0 0.2551
pair_coeff 2 2 1.0 0.5 50.0 49.0 0.5102

mass 1 1.0
mass 2 1.0

group mobileGrp type 1
8352 atoms in group mobileGrp
group wallGrp type 2
6912 atoms in group wallGrp

neighbor 2.5 bin
neigh_modify every 1 delay 0 check yes page 100000

fix momentumFix all momentum 1 linear 1 1 1

fix ensFix mobileGrp nvt temp 1.5 1.5 0.1
timestep 0.001

velocity mobileGrp create 1.5 2024 dist gaussian

compute binId mobileGrp chunk/atom bin/1d z lower 0.05 units box
fix avDen all ave/chunk 100 1 100 binId density/number ave running file hard-sphere-X0.5-num-Den.txt overwrite

thermo 500
run 100000
Generated 0 of 1 mixed pair_coeff terms from geometric mixing rule
Step          Temp          E_pair         E_mol          TotEng         Press
0   0.82072402     0.18409277     0              1.4150981      3.4003621
Averages over the last 101 of 201 rows, steps 50000 to 100000:
Temp E_pair E_mol TotEng Press
0.820751 0.00942762 0 1.24047 0.473259
Loop time of 708.772 on 1 procs for 100000 steps with 15264 atoms

write_data hard-sphere-conf-equil-X0.5.dat.out
System init for write_data ...
Generated 0 of 1 mixed pair_coeff terms from geometric mixing rule
